38

C       9.119087034225652     14.432159454080022      1.995342015157894
C       8.429314053649147     13.202364044576445      2.009342028157894
C       6.982936853325580     13.180159290750247      2.027342258157894
C      13.521126519696129      9.570163690241321      2.012342004157894
C      14.866610667787199     12.044137395464137      2.036842121157894
C      15.542650220426701     13.290717140842679      1.988842128157895
C      14.907449419037405      9.595231478702098      1.998341991157893
C      15.597417891551057     10.824866611936312      2.013342245157894
C      17.043946222767698     10.846452775182557      2.030342234157894
C      14.822676010169680     14.498066649291633      1.944342045157894
C      13.433303637712662     12.027382425145376      2.048842026157894
C      10.589537631290948      9.540633924890452      1.965342252157894
C      13.437819884731663     14.486571234465540      1.964841945157893
C      12.714525087483178     13.270216918268353      2.035842253157895
C      11.312205572751200     10.757013333463199      2.034842013157894
C      11.271670702658909     13.258897799779939      2.044842182157893
C      10.593427021884249     11.999847825815699      2.046341984157895
C       9.204639009172695      9.528680121158356      1.943342177157895
C      10.505411219303232     14.457227646684538      2.009841962157893
C       9.160510269983183     11.982771420208334      2.033342211157894
C       8.484665505120958     10.736030514535610      1.985342218157893
C       7.050336657439846     10.696956424283815      2.019342197157894
C      12.755298400191542     10.768628721039722      2.046842290157894
C      16.976977202336027     13.329791305556880      2.020841999157895
H       8.553062361663818     15.366244636601563      1.983842043157894
H       8.658167473903804      8.583989579447444      1.908341957157894
H      11.110982470466020      8.584287536991571      1.950341998157894
H      13.027147297465383      8.599786878698556      2.020841999157895
H      12.916569831155449     15.442756462574703      1.948342262157894
H      15.473669004775843      8.660986500058291      1.986342086157894
H      10.999821806022533     15.427739642891584      2.019842131157894
H      15.369148251643853     15.442758075930847      1.908842264157894
O       6.218456691211173     14.142404391378701      1.962842209157895
O       6.369507732957933     11.910855873124554      2.093342109157895
O       6.361439979174129      9.675416285241543      1.950341998157894
O      17.657806706215954     12.115891377339523      2.094842283157895
O      17.808232758079271      9.884367875590584      1.964841945157893
O      17.666069371768412     14.351171168967259      1.950841932157893
