38

O       6.335045177828422     12.008551573759823      3.112452906853619
O      17.692467809556646     12.016525000292768      3.115156085227452
O       6.272035541171655      9.777876019276910      2.912969430115167
O      17.757221473011228      9.786181313519979      2.914199701273434
O       6.273616966955551     14.244096505449825      2.980954584824811
O      17.751028093180388     14.251734806463588      2.977062948746998
C      10.587512138693171     12.012177590144143      3.076611700260262
C      13.439396315912745     12.014232408652232      3.082441941128614
C      11.289672026836138     10.763338488803084      3.036996509455490
C      12.738636785505985     10.764732297502926      3.036846066732664
C      11.288151603025332     13.263465612039454      3.056549681685670
C      12.737154997545106     13.264423547181593      3.061919267988566
C       9.151138193452070     12.010711426437657      3.083956180726711
C      14.875642886541952     12.014804754733348      3.091811472577557
C       8.440218051423539     10.781222231066055      3.032153796686700
C      15.588208725186826     10.786751481448100      3.037558685835119
C       8.441538243774863     13.239196717440073      3.075067572346750
C      15.584078825165840     13.244351030174554      3.080924499537202
C      10.537428573280391      9.564386867968379      2.952532527507858
C      13.492538708932390      9.567998887704114      2.944051488817715
C      10.534839203309154     14.460338304751703      2.979735476190683
C      13.489065131613765     14.462093578602570      2.990051692696127
C       9.146780027526834      9.571687897365816      2.948274673309450
C      14.883666301163140      9.577267576321738      2.943803301380775
C       9.144249331480601     14.449773293785805      2.994669977838063
C      14.879575617711426     14.453826501360737      3.004207038235199
C       6.982554925503567     10.769898543400913      3.018935344232991
C      17.046106024674675     10.777307987106632      3.022490342870354
C       6.982617343260250     13.249507455597648      3.060040604322772
C      17.043444836344065     13.256473670152902      3.059933353837781
H      11.043527720730612      8.601856336802872      2.902312120472738
H      12.988322067666346      8.605006002936603      2.884869849172635
H      11.039465486479926     15.423453386799766      2.922842376190655
H      12.983248353872272     15.424667295462369      2.933001572887548
H       8.583771436388158      8.639070115131972      2.890427319043729
H      15.447333731121233      8.645501899934116      2.880088288815774
H       8.579280418292734     15.382075000096208      2.946839955339479
H      15.443045337080902     15.387061025531054      2.955259664834839
